goiania_leste_dss/TR2/CTMT_5001994.dss
! ==============================================================================
! ALIMENTADOR CTMT_5001994 - GOIANIA LESTE-14
! Subestacao: Trafo TR2 (GOL-S-TRF-TR2) | Barra MT: 4629 -> PAC_INI: 84804505001994
! ==============================================================================

! 1. Disjuntor de Saida MT do Alimentador
new line.DJ_5001994 phases=3 bus1=4629 bus2=84804505001994 switch=y r1=1e-4 x1=1e-4 length=0.001 units=km

! 2. Linhas de Media Tensao (MT)
new line.52878977 phases=3 bus1=80474035001994.1.2.3 bus2=80474025001994B.1.2.3 r1=1.551 x1=0.49 length=0.026414 units=km normamps=114.0
new line.52878978 phases=3 bus1=80474025001994.1.2.3 bus2=80474045001994.1.2.3 r1=0.236 x1=0.27 length=0.030384 units=km normamps=456.0
new line.52878979 phases=3 bus1=80474045001994.1.2.3 bus2=96098395001994.1.2.3 r1=0.236 x1=0.27 length=0.010618 units=km normamps=456.0
new line.52878982 phases=3 bus1=80474065001994B.1.2.3 bus2=80474085001994.1.2.3 r1=0.236 x1=0.27 length=0.037861 units=km normamps=456.0
new line.52878983 phases=3 bus1=80474075001994B.1.2.3 bus2=80474105001994.1.2.3 r1=0.195 x1=0.4 length=0.040896 units=km normamps=419.0
new line.52878984 phases=3 bus1=80474105001994.1.2.3 bus2=80474115001994.1.2.3 r1=0.195 x1=0.4 length=0.044066 units=km normamps=419.0
new line.52878985 phases=3 bus1=80474125001994.1.2.3 bus2=80474115001994B.1.2.3 r1=1.551 x1=0.49 length=0.013718 units=km normamps=114.0
new line.52878986 phases=3 bus1=80474135001994.1.2.3 bus2=80474125001994.1.2.3 r1=1.551 x1=0.49 length=0.030828 units=km normamps=114.0
new line.52878987 phases=3 bus1=80474145001994.1.2.3 bus2=80474135001994.1.2.3 r1=1.551 x1=0.49 length=0.009913 units=km normamps=114.0
new line.52878988 phases=3 bus1=80474155001994.1.2.3 bus2=80474135001994.1.2.3 r1=1.551 x1=0.49 length=0.013331 units=km normamps=114.0
new line.52878989 phases=3 bus1=80474165001994.1.2.3 bus2=80474155001994.1.2.3 r1=1.551 x1=0.49 length=0.030743 units=km normamps=114.0
new line.52878990 phases=3 bus1=80474175001994.1.2.3 bus2=80474165001994.1.2.3 r1=1.551 x1=0.49 length=0.031763 units=km normamps=114.0
new line.52878991 phases=3 bus1=80474185001994.1.2.3 bus2=80474175001994.1.2.3 r1=0.975 x1=0.47 length=0.045093 units=km normamps=152.0
new line.52878992 phases=3 bus1=80474185001994.1.2.3 bus2=80474195001994.1.2.3 r1=0.975 x1=0.47 length=0.020649 units=km normamps=152.0
new line.52878994 phases=3 bus1=80474085001994.1.2.3 bus2=80474335001994.1.2.3 r1=0.236 x1=0.27 length=0.033632 units=km normamps=456.0
new line.52878995 phases=3 bus1=80474335001994.1.2.3 bus2=80474345001994.1.2.3 r1=0.236 x1=0.27 length=0.030841 units=km normamps=456.0
new line.52879022 phases=3 bus1=80474715001994.1.2.3 bus2=80474115001994.1.2.3 r1=0.195 x1=0.4 length=0.048876 units=km normamps=419.0
new line.52879023 phases=3 bus1=80474725001994.1.2.3 bus2=80474715001994.1.2.3 r1=0.195 x1=0.4 length=0.080529 units=km normamps=419.0
new line.52879024 phases=3 bus1=80472495001994.1.2.3 bus2=80472485001994B.1.2.3 r1=0.236 x1=0.27 length=0.033533 units=km normamps=456.0
new line.52879025 phases=3 bus1=80472505001994.1.2.3 bus2=80472495001994.1.2.3 r1=0.195 x1=0.4 length=0.007054 units=km normamps=419.0
new line.52879026 phases=3 bus1=80472515001994.1.2.3 bus2=80472495001994.1.2.3 r1=0.236 x1=0.27 length=0.03437 units=km normamps=456.0
new line.52879031 phases=3 bus1=80472565001994.1.2.3 bus2=80472555001994B.1.2.3 r1=0.195 x1=0.4 length=0.040822 units=km normamps=419.0
new line.52879032 phases=3 bus1=80472575001994.1.2.3 bus2=80472565001994.1.2.3 r1=0.195 x1=0.4 length=0.048612 units=km normamps=419.0
new line.52879033 phases=3 bus1=80472585001994.1.2.3 bus2=80472575001994.1.2.3 r1=0.195 x1=0.4 length=0.03987 units=km normamps=419.0
new line.52879034 phases=3 bus1=80472595001994.1.2.3 bus2=80472585001994.1.2.3 r1=0.195 x1=0.4 length=0.007003 units=km normamps=419.0
new line.52879035 phases=3 bus1=80472605001994.1.2.3 bus2=80472585001994.1.2.3 r1=0.195 x1=0.4 length=0.022074 units=km normamps=419.0
new line.52879036 phases=3 bus1=80472615001994.1.2.3 bus2=80472605001994.1.2.3 r1=0.195 x1=0.4 length=0.007608 units=km normamps=419.0
new line.52879037 phases=3 bus1=80472625001994.1.2.3 bus2=80472605001994.1.2.3 r1=0.195 x1=0.4 length=0.02186 units=km normamps=419.0
new line.52879038 phases=3 bus1=80472635001994.1.2.3 bus2=80472625001994.1.2.3 r1=0.195 x1=0.4 length=0.028922 units=km normamps=419.0
new line.52879039 phases=3 bus1=80440775001994.1.2.3 bus2=80472635001994.1.2.3 r1=0.195 x1=0.4 length=0.041715 units=km normamps=419.0
new line.52879040 phases=3 bus1=80440785001994.1.2.3 bus2=89090715001994.1.2.3 r1=0.195 x1=0.4 length=0.018226 units=km normamps=419.0
new line.52879041 phases=3 bus1=80440795001994.1.2.3 bus2=80440785001994.1.2.3 r1=0.195 x1=0.4 length=0.022991 units=km normamps=419.0
new line.52879042 phases=3 bus1=80440805001994.1.2.3 bus2=80440795001994.1.2.3 r1=0.195 x1=0.4 length=0.030321 units=km normamps=419.0
new line.52879043 phases=3 bus1=80440815001994.1.2.3 bus2=80440805001994.1.2.3 r1=0.195 x1=0.4 length=0.029281 units=km normamps=419.0
new line.52879044 phases=3 bus1=80472645001994.1.2.3 bus2=80440815001994.1.2.3 r1=0.195 x1=0.4 length=0.009146 units=km normamps=419.0
new line.52879049 phases=3 bus1=80473155001994.1.2.3 bus2=80473145001994.1.2.3 r1=0.195 x1=0.4 length=0.033991 units=km normamps=419.0
new line.52879050 phases=3 bus1=80473145001994.1.2.3 bus2=80472645001994.1.2.3 r1=0.195 x1=0.4 length=0.029767 units=km normamps=419.0
new line.52879051 phases=3 bus1=80473165001994.1.2.3 bus2=80473155001994.1.2.3 r1=0.195 x1=0.4 length=0.02009 units=km normamps=419.0
new line.52879052 phases=3 bus1=80473175001994.1.2.3 bus2=80473165001994.1.2.3 r1=0.195 x1=0.4 length=0.0291 units=km normamps=419.0
new line.52879053 phases=3 bus1=80473195001994.1.2.3 bus2=80473175001994.1.2.3 r1=0.195 x1=0.4 length=0.032024 units=km normamps=419.0
new line.52879054 phases=3 bus1=80473195001994.1.2.3 bus2=80473185001994.1.2.3 r1=0.195 x1=0.4 length=0.013331 units=km normamps=419.0
new line.52879055 phases=3 bus1=80473185001994.1.2.3 bus2=80473205001994.1.2.3 r1=0.195 x1=0.4 length=0.047215 units=km normamps=419.0
new line.52879056 phases=3 bus1=80473205001994.1.2.3 bus2=80473215001994.1.2.3 r1=0.195 x1=0.4 length=0.037221 units=km normamps=419.0
new line.52879057 phases=3 bus1=80473215001994.1.2.3 bus2=80473225001994.1.2.3 r1=0.195 x1=0.4 length=0.050841 units=km normamps=419.0
new line.52879074 phases=3 bus1=80473225001994.1.2.3 bus2=80473415001994.1.2.3 r1=0.195 x1=0.4 length=0.040452 units=km normamps=419.0
new line.52879075 phases=3 bus1=80473415001994.1.2.3 bus2=80473425001994.1.2.3 r1=0.195 x1=0.4 length=0.027816 units=km normamps=419.0
new line.52879077 phases=3 bus1=80473425001994.1.2.3 bus2=80473445001994.1.2.3 r1=0.195 x1=0.4 length=0.028786 units=km normamps=419.0
new line.52879078 phases=3 bus1=80473455001994.1.2.3 bus2=80473445001994.1.2.3 r1=1.551 x1=0.49 length=0.029064 units=km normamps=114.0
new line.52879081 phases=3 bus1=80473485001994.1.2.3 bus2=80473475001994.1.2.3 r1=1.551 x1=0.49 length=0.003558 units=km normamps=114.0
new line.52879082 phases=3 bus1=80473445001994.1.2.3 bus2=80473495001994.1.2.3 r1=0.195 x1=0.4 length=0.033008 units=km normamps=419.0
new line.52879083 phases=3 bus1=80473495001994.1.2.3 bus2=80473505001994.1.2.3 r1=0.195 x1=0.4 length=0.037218 units=km normamps=419.0
new line.52879084 phases=3 bus1=80473505001994.1.2.3 bus2=95176135001994.1.2.3 r1=0.195 x1=0.4 length=0.004895 units=km normamps=419.0
new line.52879085 phases=3 bus1=80473565001994.1.2.3 bus2=80473555001994.1.2.3 r1=0.984 x1=0.49 length=0.017306 units=km normamps=170.0
new line.52879086 phases=3 bus1=80473515001994.1.2.3 bus2=80473585001994.1.2.3 r1=0.195 x1=0.4 length=0.049164 units=km normamps=419.0
new line.52879087 phases=3 bus1=80473555001994.1.2.3 bus2=80473585001994B.1.2.3 r1=1.551 x1=0.49 length=0.011432 units=km normamps=114.0
new line.52879088 phases=3 bus1=80473585001994.1.2.3 bus2=80473595001994.1.2.3 r1=0.195 x1=0.4 length=0.031367 units=km normamps=419.0
new line.52879089 phases=3 bus1=80473595001994.1.2.3 bus2=80473605001994.1.2.3 r1=0.195 x1=0.4 length=0.033729 units=km normamps=419.0
new line.52879090 phases=3 bus1=80473605001994.1.2.3 bus2=80473685001994.1.2.3 r1=0.195 x1=0.4 length=0.035954 units=km normamps=419.0
new line.52879091 phases=3 bus1=80473685001994.1.2.3 bus2=80473695001994.1.2.3 r1=0.195 x1=0.4 length=0.040349 units=km normamps=419.0
new line.52879092 phases=3 bus1=80473695001994.1.2.3 bus2=80473705001994.1.2.3 r1=0.195 x1=0.4 length=0.048099 units=km normamps=419.0
new line.52879093 phases=3 bus1=80473605001994B.1.2.3 bus2=80473715001994.1.2.3 r1=1.551 x1=0.49 length=0.014747 units=km normamps=114.0
new line.52879094 phases=3 bus1=80473715001994.1.2.3 bus2=80473725001994.1.2.3 r1=1.551 x1=0.49 length=0.023222 units=km normamps=114.0
new line.52879095 phases=3 bus1=80474015001994.1.2.3 bus2=80472815001994.1.2.3 r1=0.236 x1=0.27 length=0.026407 units=km normamps=456.0
new line.52879096 phases=3 bus1=80474015001994.1.2.3 bus2=80474025001994.1.2.3 r1=0.236 x1=0.27 length=0.037934 units=km normamps=456.0
new line.52879109 phases=3 bus1=80475005001994.1.2.3 bus2=80474995001994.1.2.3 r1=0.188 x1=0.26 length=0.051718 units=km normamps=525.0
new line.52879110 phases=3 bus1=80475015001994.1.2.3 bus2=80475005001994.1.2.3 r1=0.188 x1=0.26 length=0.044391 units=km normamps=525.0
new line.52879112 phases=3 bus1=80475085001994.1.2.3 bus2=80475075001994.1.2.3 r1=0.195 x1=0.4 length=0.041064 units=km normamps=419.0
new line.52879113 phases=3 bus1=80475105001994.1.2.3 bus2=80475085001994B.1.2.3 r1=0.195 x1=0.4 length=0.022331 units=km normamps=419.0
new line.52879114 phases=3 bus1=80475115001994.1.2.3 bus2=80475105001994.1.2.3 r1=0.236 x1=0.27 length=0.021349 units=km normamps=456.0
new line.52879127 phases=3 bus1=80478005001994.1.2.3 bus2=80475305001994.1.2.3 r1=0.195 x1=0.4 length=0.022639 units=km normamps=419.0
new line.52879128 phases=3 bus1=80475305001994.1.2.3 bus2=80478015001994.1.2.3 r1=0.195 x1=0.4 length=0.052042 units=km normamps=419.0
new line.52879129 phases=3 bus1=80478015001994.1.2.3 bus2=80478025001994.1.2.3 r1=0.195 x1=0.4 length=0.01882 units=km normamps=419.0
new line.52879130 phases=3 bus1=80478045001994.1.2.3 bus2=80478035001994.1.2.3 r1=1.551 x1=0.49 length=0.027576 units=km normamps=114.0
new line.52879131 phases=3 bus1=80478055001994.1.2.3 bus2=80478045001994.1.2.3 r1=1.551 x1=0.49 length=0.010226 units=km normamps=114.0
new line.52879132 phases=3 bus1=80478065001994.1.2.3 bus2=80478045001994.1.2.3 r1=1.551 x1=0.49 length=0.027694 units=km normamps=114.0
new line.52879133 phases=3 bus1=80478245001994.1.2.3 bus2=80478235001994.1.2.3 r1=0.975 x1=0.46 length=0.021103 units=km normamps=160.0
new line.52879135 phases=3 bus1=80444705001994.1.2.3 bus2=80439905001994.1.2.3 r1=0.188 x1=0.26 length=0.018788 units=km normamps=525.0
new line.52879136 phases=3 bus1=80439905001994.1.2.3 bus2=80439915001994.1.2.3 r1=0.188 x1=0.26 length=0.009172 units=km normamps=525.0
new line.52879137 phases=3 bus1=80439915001994.1.2.3 bus2=80439925001994.1.2.3 r1=0.188 x1=0.26 length=0.006334 units=km normamps=525.0
new line.52879138 phases=3 bus1=80439925001994.1.2.3 bus2=80439935001994.1.2.3 r1=0.188 x1=0.26 length=0.006672 units=km normamps=525.0
new line.52879139 phases=3 bus1=80439935001994.1.2.3 bus2=80439955001994.1.2.3 r1=0.188 x1=0.26 length=0.011065 units=km normamps=525.0
new line.52879140 phases=3 bus1=80439955001994.1.2.3 bus2=80439945001994.1.2.3 r1=0.188 x1=0.26 length=0.006371 units=km normamps=525.0
new line.52879141 phases=3 bus1=80439945001994.1.2.3 bus2=80465415001994.1.2.3 r1=0.188 x1=0.26 length=0.012224 units=km normamps=525.0
new line.52879142 phases=3 bus1=80465415001994.1.2.3 bus2=80471855001994.1.2.3 r1=0.188 x1=0.26 length=0.008088 units=km normamps=525.0
new line.52879143 phases=3 bus1=80471855001994.1.2.3 bus2=80471845001994.1.2.3 r1=0.188 x1=0.26 length=0.007954 units=km normamps=525.0
new line.52879144 phases=3 bus1=80471845001994.1.2.3 bus2=80471835001994.1.2.3 r1=0.188 x1=0.26 length=0.006704 units=km normamps=525.0
new line.52879145 phases=3 bus1=80471835001994.1.2.3 bus2=80471765001994.1.2.3 r1=0.188 x1=0.26 length=0.010933 units=km normamps=525.0
new line.52879146 phases=3 bus1=80471765001994.1.2.3 bus2=80471775001994.1.2.3 r1=0.188 x1=0.26 length=0.010428 units=km normamps=525.0
new line.52879147 phases=3 bus1=80471775001994.1.2.3 bus2=80471825001994.1.2.3 r1=0.188 x1=0.26 length=0.006467 units=km normamps=525.0
new line.52879148 phases=3 bus1=80475215001994.1.2.3 bus2=80471825001994.1.2.3 r1=0.188 x1=0.26 length=0.027221 units=km normamps=525.0
new line.52879149 phases=3 bus1=80473515001994.1.2.3 bus2=80479385001994.1.2.3 r1=0.195 x1=0.4 length=0.013576 units=km normamps=419.0
new line.52879157 phases=3 bus1=80472785001994.1.2.3 bus2=80472775001994.1.2.3 r1=0.195 x1=0.4 length=0.00958 units=km normamps=419.0
new line.52879158 phases=3 bus1=80472795001994.1.2.3 bus2=80472775001994.1.2.3 r1=0.195 x1=0.4 length=0.015817 units=km normamps=419.0
new line.52879159 phases=3 bus1=80472795001994B.1.2.3 bus2=80472485001994.1.2.3 r1=0.236 x1=0.27 length=0.039069 units=km normamps=456.0
new line.52879160 phases=3 bus1=80472805001994.1.2.3 bus2=80472795001994.1.2.3 r1=0.236 x1=0.27 length=0.033458 units=km normamps=456.0
new line.52879161 phases=3 bus1=80472805001994.1.2.3 bus2=80472815001994.1.2.3 r1=0.236 x1=0.27 length=0.041479 units=km normamps=456.0
new line.52879169 phases=3 bus1=80475205001994.1.2.3 bus2=96383315001994.1.2.3 r1=0.195 x1=0.4 length=0.011853 units=km normamps=419.0
new line.52879170 phases=3 bus1=80473705001994.1.2.3 bus2=80475205001994.1.2.3 r1=0.195 x1=0.4 length=0.037888 units=km normamps=419.0
new line.52879171 phases=3 bus1=80444115001994.1.2.3 bus2=80444105001994.1.2.3 r1=0.188 x1=0.26 length=0.03277 units=km normamps=525.0
new line.52879172 phases=3 bus1=80444125001994.1.2.3 bus2=80444115001994.1.2.3 r1=0.188 x1=0.26 length=0.036441 units=km normamps=525.0
new line.52879173 phases=3 bus1=80444135001994.1.2.3 bus2=80444705001994.1.2.3 r1=0.188 x1=0.26 length=0.016109 units=km normamps=525.0
new line.52879174 phases=3 bus1=80474995001994.1.2.3 bus2=80444105001994.1.2.3 r1=0.188 x1=0.26 length=0.02929 units=km normamps=525.0
new line.52879176 phases=3 bus1=80479355001994.1.2.3 bus2=80475215001994.1.2.3 r1=0.188 x1=0.26 length=0.022284 units=km normamps=525.0
new line.52879181 phases=3 bus1=80478255001994.1.2.3 bus2=80478265001994.1.2.3 r1=0.975 x1=0.46 length=0.020598 units=km normamps=160.0
new line.52879182 phases=3 bus1=80478265001994.1.2.3 bus2=80478275001994.1.2.3 r1=0.975 x1=0.46 length=0.020365 units=km normamps=160.0
new line.52879183 phases=3 bus1=80478275001994.1.2.3 bus2=80478215001994.1.2.3 r1=0.975 x1=0.46 length=0.020511 units=km normamps=160.0
new line.52879184 phases=3 bus1=80478285001994.1.2.3 bus2=80478245001994.1.2.3 r1=0.975 x1=0.46 length=0.017006 units=km normamps=160.0
new line.52879206 phases=3 bus1=80478565001994.1.2.3 bus2=80478185001994.1.2.3 r1=0.975 x1=0.46 length=0.026984 units=km normamps=160.0
new line.52879207 phases=3 bus1=80478195001994.1.2.3 bus2=80478565001994.1.2.3 r1=0.975 x1=0.46 length=0.020489 units=km normamps=160.0
new line.52879208 phases=3 bus1=80478605001994.1.2.3 bus2=80478615001994.1.2.3 r1=0.975 x1=0.46 length=0.02784 units=km normamps=160.0
new line.52879209 phases=3 bus1=80478615001994.1.2.3 bus2=80478255001994.1.2.3 r1=0.975 x1=0.46 length=0.019288 units=km normamps=160.0
new line.52879210 phases=3 bus1=80478625001994.1.2.3 bus2=80478615001994.1.2.3 r1=0.975 x1=0.46 length=0.012178 units=km normamps=160.0
new line.52879211 phases=3 bus1=80478635001994.1.2.3 bus2=80478605001994.1.2.3 r1=0.975 x1=0.46 length=0.00834 units=km normamps=160.0
new line.52879322 phases=3 bus1=80478125001994.1.2.3 bus2=80479315001994.1.2.3 r1=0.245 x1=0.42 length=0.004444 units=km normamps=362.0
new line.52879323 phases=3 bus1=80478055001994.1.2.3 bus2=80479325001994.1.2.3 r1=1.551 x1=0.49 length=0.00636 units=km normamps=114.0
new line.52879363 phases=3 bus1=80475285001994.1.2.3 bus2=80475295001994.1.2.3 r1=0.195 x1=0.4 length=0.022333 units=km normamps=419.0
new line.52879364 phases=3 bus1=80475295001994.1.2.3 bus2=80475305001994.1.2.3 r1=0.195 x1=0.4 length=0.025554 units=km normamps=419.0
new line.52879365 phases=3 bus1=80475315001994.1.2.3 bus2=80475285001994B.1.2.3 r1=0.195 x1=0.4 length=0.034199 units=km normamps=419.0
new line.52879366 phases=3 bus1=80475325001994.1.2.3 bus2=80475315001994.1.2.3 r1=0.195 x1=0.4 length=0.029007 units=km normamps=419.0
new line.52879367 phases=3 bus1=80445665001994.1.2.3 bus2=80475325001994.1.2.3 r1=0.195 x1=0.4 length=0.030325 units=km normamps=419.0
new line.52879463 phases=3 bus1=80476065001994.1.2.3 bus2=91072225001994.1.2.3 r1=0.195 x1=0.4 length=0.006963 units=km normamps=419.0
new line.52879464 phases=3 bus1=80475315001994.1.2.3 bus2=80476065001994.1.2.3 r1=0.195 x1=0.4 length=0.01006 units=km normamps=419.0
new line.52879469 phases=3 bus1=80478035001994.1.2.3 bus2=80478015001994B.1.2.3 r1=1.551 x1=0.49 length=0.016471 units=km normamps=114.0
new line.52879470 phases=3 bus1=80478025001994.1.2.3 bus2=80478095001994.1.2.3 r1=0.195 x1=0.4 length=0.04184 units=km normamps=419.0
new line.52879471 phases=3 bus1=80478095001994.1.2.3 bus2=80478105001994.1.2.3 r1=0.195 x1=0.4 length=0.027462 units=km normamps=419.0
new line.52879472 phases=3 bus1=80478105001994.1.2.3 bus2=90136715001994.1.2.3 r1=0.195 x1=0.4 length=0.016122 units=km normamps=419.0
new line.52879473 phases=3 bus1=80478115001994.1.2.3 bus2=80478125001994.1.2.3 r1=0.195 x1=0.4 length=0.010948 units=km normamps=419.0
new line.52879474 phases=3 bus1=80478125001994.1.2.3 bus2=80478135001994.1.2.3 r1=0.195 x1=0.4 length=0.014843 units=km normamps=419.0
new line.52879475 phases=3 bus1=80478135001994.1.2.3 bus2=80478145001994.1.2.3 r1=0.195 x1=0.4 length=0.020755 units=km normamps=419.0
new line.52879476 phases=3 bus1=80478145001994.1.2.3 bus2=80474725001994.1.2.3 r1=0.195 x1=0.4 length=0.034393 units=km normamps=419.0
new line.52879477 phases=3 bus1=80478185001994.1.2.3 bus2=80474725001994B.1.2.3 r1=0.975 x1=0.46 length=0.014046 units=km normamps=160.0
new line.52879478 phases=3 bus1=80478205001994.1.2.3 bus2=80478195001994.1.2.3 r1=0.975 x1=0.46 length=0.0328 units=km normamps=160.0
new line.52879479 phases=3 bus1=80478215001994.1.2.3 bus2=80478205001994.1.2.3 r1=0.975 x1=0.46 length=0.023394 units=km normamps=160.0
new line.52879480 phases=3 bus1=80478235001994.1.2.3 bus2=80478215001994.1.2.3 r1=0.975 x1=0.46 length=0.029802 units=km normamps=160.0
new line.53950916 phases=3 bus1=80479355001994.1.2.3 bus2=84804505001994.1.2.3 r1=0.188 x1=0.26 length=0.004682 units=km normamps=525.0
new line.54496316 phases=3 bus1=89090715001994.1.2.3 bus2=80440775001994.1.2.3 r1=0.195 x1=0.4 length=0.006308 units=km normamps=419.0
new line.54496317 phases=3 bus1=89090715001994.1.2.3 bus2=89090725001994.1.2.3 r1=0.732 x1=0.31 length=0.020952 units=km normamps=225.0
new line.54579262 phases=3 bus1=80478565001994.1.2.3 bus2=80478165001994.1.2.3 r1=0.975 x1=0.46 length=0.023792 units=km normamps=160.0
new line.54617172 phases=3 bus1=80473475001994.1.2.3 bus2=90015875001994.1.2.3 r1=1.551 x1=0.49 length=0.011861 units=km normamps=114.0
new line.54617173 phases=3 bus1=90015875001994.1.2.3 bus2=90015885001994.1.2.3 r1=1.551 x1=0.49 length=0.013797 units=km normamps=114.0
new line.54617180 phases=3 bus1=90015885001994.1.2.3 bus2=90015915001994.1.2.3 r1=1.551 x1=0.49 length=0.011499 units=km normamps=114.0
new line.54633307 phases=3 bus1=90136715001994.1.2.3 bus2=80478115001994.1.2.3 r1=0.195 x1=0.4 length=0.012627 units=km normamps=419.0
new line.54759576 phases=3 bus1=91072225001994B.1.2.3 bus2=91863865001994.1.2.3 r1=0.195 x1=0.4 length=0.007167 units=km normamps=419.0
new line.54759603 phases=3 bus1=91072195001994B.1.2.3 bus2=91072205001994.1.2.3 r1=0.236 x1=0.27 length=0.030664 units=km normamps=456.0
new line.54759604 phases=3 bus1=91072205001994.1.2.3 bus2=91072225001994.1.2.3 r1=0.236 x1=0.27 length=0.011333 units=km normamps=456.0
new line.54850742 phases=3 bus1=91863865001994.1.2.3 bus2=91072155001994B.1.2.3 r1=0.195 x1=0.4 length=0.011011 units=km normamps=419.0
new line.54979648 phases=3 bus1=80472775001994.1.2.3 bus2=92860995001994_2.1.2.3 r1=0.195 x1=0.4 length=0.001067 units=km normamps=419.0
new line.54979649 phases=3 bus1=92860995001994.1.2.3 bus2=92860985001994B.1.2.3 r1=0.195 x1=0.4 length=0.009259 units=km normamps=419.0
new line.54979650 phases=3 bus1=92861005001994B.1.2.3 bus2=92861015001994.1.2.3 r1=0.236 x1=0.27 length=0.020679 units=km normamps=456.0
new line.54979651 phases=3 bus1=92860995001994.1.2.3 bus2=92861015001994.1.2.3 r1=0.732 x1=0.31 length=0.010276 units=km normamps=225.0
new line.55008655 phases=3 bus1=80472775001994.1.2.3 bus2=92860995001994.1.2.3 r1=0.195 x1=0.4 length=0.004053 units=km normamps=419.0
new line.55167202 phases=3 bus1=80444135001994.1.2.3 bus2=94312465001994.1.2.3 r1=0.188 x1=0.26 length=0.025051 units=km normamps=525.0
new line.55167203 phases=3 bus1=94312465001994.1.2.3 bus2=80444125001994.1.2.3 r1=0.188 x1=0.26 length=0.013968 units=km normamps=525.0
new line.55247316 phases=3 bus1=94918435001994.1.2.3 bus2=94918455001994.1.2.3 r1=0.195 x1=0.4 length=0.007172 units=km normamps=419.0
new line.55247320 phases=3 bus1=94918455001994.1.2.3 bus2=80445665001994B.1.2.3 r1=0.195 x1=0.4 length=0.008445 units=km normamps=419.0
new line.55247325 phases=3 bus1=94918475001994.1.2.3 bus2=94918455001994.1.2.3 r1=0.236 x1=0.27 length=0.005973 units=km normamps=456.0
new line.55275986 phases=3 bus1=95176125001994.1.2.3 bus2=95176145001994.1.2.3 r1=0.195 x1=0.4 length=0.008376 units=km normamps=419.0
new line.55275988 phases=3 bus1=95176135001994.1.2.3 bus2=95176125001994B.1.2.3 r1=0.195 x1=0.4 length=0.011158 units=km normamps=419.0
new line.55275990 phases=3 bus1=95176145001994.1.2.3 bus2=80473515001994.1.2.3 r1=0.195 x1=0.4 length=0.005083 units=km normamps=419.0
new line.55276015 phases=3 bus1=95176135001994.1.2.3 bus2=95176155001994.1.2.3 r1=0.236 x1=0.27 length=0.008948 units=km normamps=456.0
new line.55276016 phases=3 bus1=95176155001994.1.2.3 bus2=95176175001994.1.2.3 r1=0.236 x1=0.27 length=0.010535 units=km normamps=456.0
new line.55276017 phases=3 bus1=95176175001994.1.2.3 bus2=95176165001994B.1.2.3 r1=0.236 x1=0.27 length=0.010604 units=km normamps=456.0
new line.55276018 phases=3 bus1=95176165001994.1.2.3 bus2=95176145001994.1.2.3 r1=0.236 x1=0.27 length=0.008443 units=km normamps=456.0
new line.55309346 phases=3 bus1=95442075001994.1.2.3 bus2=80475015001994.1.2.3 r1=0.188 x1=0.26 length=0.026439 units=km normamps=525.0
new line.55386428 phases=3 bus1=96041475001994.1.2.3 bus2=96041505001994.1.2.3 r1=1.551 x1=0.49 length=0.00934 units=km normamps=114.0
new line.55386432 phases=3 bus1=96041515001994.1.2.3 bus2=96041475001994B.1.2.3 r1=1.551 x1=0.49 length=0.009398 units=km normamps=114.0
new line.55386434 phases=3 bus1=96041505001994.1.2.3 bus2=96041485001994.1.2.3 r1=0.236 x1=0.27 length=0.008602 units=km normamps=456.0
new line.55386435 phases=3 bus1=96041485001994.1.2.3 bus2=96239065001994.1.2.3 r1=0.236 x1=0.27 length=0.008643 units=km normamps=456.0
new line.55386436 phases=3 bus1=96041495001994.1.2.3 bus2=96041515001994.1.2.3 r1=0.236 x1=0.27 length=0.009026 units=km normamps=456.0
new line.55394303 phases=3 bus1=96098385001994B.1.2.3 bus2=96098405001994.1.2.3 r1=0.195 x1=0.4 length=0.00582 units=km normamps=419.0
new line.55394305 phases=3 bus1=96098395001994.1.2.3 bus2=96098385001994.1.2.3 r1=0.236 x1=0.27 length=0.005019 units=km normamps=456.0
new line.55394309 phases=3 bus1=96098405001994.1.2.3 bus2=96098425001994.1.2.3 r1=0.236 x1=0.27 length=0.007017 units=km normamps=456.0
new line.55394310 phases=3 bus1=96098425001994.1.2.3 bus2=96098415001994B.1.2.3 r1=0.236 x1=0.27 length=0.010653 units=km normamps=456.0
new line.55394311 phases=3 bus1=96098415001994.1.2.3 bus2=96098395001994.1.2.3 r1=0.236 x1=0.27 length=0.006975 units=km normamps=456.0
new line.55410394 phases=3 bus1=96239065001994B.1.2.3 bus2=96041495001994.1.2.3 r1=0.236 x1=0.27 length=0.009668 units=km normamps=456.0
new line.55410396 phases=3 bus1=80473465001994.1.2.3 bus2=96041505001994.1.2.3 r1=1.551 x1=0.49 length=0.007505 units=km normamps=114.0
new line.55410397 phases=3 bus1=96041515001994.1.2.3 bus2=80473475001994.1.2.3 r1=1.551 x1=0.49 length=0.021577 units=km normamps=114.0
new line.55423450 phases=3 bus1=96383295001994B.1.2.3 bus2=96383305001994.1.2.3 r1=0.195 x1=0.4 length=0.007203 units=km normamps=419.0
new line.55423452 phases=3 bus1=96383305001994.1.2.3 bus2=80475195001994B.1.2.3 r1=0.236 x1=0.27 length=0.014821 units=km normamps=456.0
new line.55423454 phases=3 bus1=96383315001994.1.2.3 bus2=96383295001994.1.2.3 r1=0.195 x1=0.4 length=0.007488 units=km normamps=419.0
new line.55423456 phases=3 bus1=96383305001994.1.2.3 bus2=96383335001994.1.2.3 r1=0.236 x1=0.27 length=0.007974 units=km normamps=456.0
new line.55423457 phases=3 bus1=96383335001994B.1.2.3 bus2=96383325001994.1.2.3 r1=0.236 x1=0.27 length=0.014711 units=km normamps=456.0
new line.55423458 phases=3 bus1=96383325001994.1.2.3 bus2=96383315001994.1.2.3 r1=0.236 x1=0.27 length=0.007845 units=km normamps=456.0
new line.55458563 phases=3 bus1=96641895001994.1.2.3 bus2=96641935001994.1.2.3 r1=1.551 x1=0.49 length=0.005951 units=km normamps=114.0
new line.55458567 phases=3 bus1=96641935001994.1.2.3 bus2=80474035001994.1.2.3 r1=1.551 x1=0.49 length=0.010104 units=km normamps=114.0
new line.55458569 phases=3 bus1=96641935001994.1.2.3 bus2=96641915001994.1.2.3 r1=0.236 x1=0.27 length=0.006374 units=km normamps=456.0
new line.55458570 phases=3 bus1=96641915001994.1.2.3 bus2=96641905001994B.1.2.3 r1=0.236 x1=0.27 length=0.010627 units=km normamps=456.0
new line.55495985 phases=3 bus1=96920785001994B.1.2.3 bus2=96920825001994.1.2.3 r1=0.195 x1=0.4 length=0.007071 units=km normamps=419.0
new line.55495989 phases=3 bus1=96920825001994.1.2.3 bus2=80473195001994.1.2.3 r1=0.195 x1=0.4 length=0.007701 units=km normamps=419.0
new line.55495992 phases=3 bus1=96920795001994B.1.2.3 bus2=96920805001994.1.2.3 r1=0.236 x1=0.27 length=0.012862 units=km normamps=456.0
new line.55495993 phases=3 bus1=96920805001994.1.2.3 bus2=96920825001994.1.2.3 r1=0.236 x1=0.27 length=0.008471 units=km normamps=456.0
new line.55567671 phases=3 bus1=80474235001994.1.2.3 bus2=80474255001994.1.2.3 r1=0.236 x1=0.27 length=0.025117 units=km normamps=456.0
new line.55567672 phases=3 bus1=80474255001994.1.2.3 bus2=97389575001994.1.2.3 r1=0.236 x1=0.27 length=0.026764 units=km normamps=456.0
new line.55567673 phases=3 bus1=97389555001994.1.2.3 bus2=80474295001994.1.2.3 r1=0.236 x1=0.27 length=0.014306 units=km normamps=456.0
new line.55567676 phases=3 bus1=97389575001994.1.2.3 bus2=97389565001994.1.2.3 r1=0.236 x1=0.27 length=0.047176 units=km normamps=456.0
new line.55567677 phases=3 bus1=97389565001994.1.2.3 bus2=97389555001994.1.2.3 r1=0.236 x1=0.27 length=0.031952 units=km normamps=456.0
new line.55567686 phases=3 bus1=80474865001994.1.2.3 bus2=80474305001994.1.2.3 r1=0.236 x1=0.27 length=0.057472 units=km normamps=456.0
new line.55567687 phases=3 bus1=80474305001994.1.2.3 bus2=80474295001994.1.2.3 r1=0.236 x1=0.27 length=0.017904 units=km normamps=456.0
new line.55567688 phases=3 bus1=80474235001994.1.2.3 bus2=80474245001994.1.2.3 r1=0.236 x1=0.27 length=0.028827 units=km normamps=456.0
new line.55567689 phases=3 bus1=80474245001994.1.2.3 bus2=80474365001994.1.2.3 r1=0.236 x1=0.27 length=0.028316 units=km normamps=456.0
...

! 3. Chaves Seccionadoras MT
new line.SC_5270614 phases=3 bus1=80445665001994.1.2.3 bus2=80445665001994B.1.2.3 switch=y r1=1e-4 x1=1e-4 length=0.001 units=km
new line.SC_5271065 phases=3 bus1=80474025001994.1.2.3 bus2=80474025001994B.1.2.3 switch=y r1=1e-4 x1=1e-4 length=0.001 units=km
new line.SC_5271070 phases=3 bus1=80475285001994.1.2.3 bus2=80475285001994B.1.2.3 switch=y r1=1e-4 x1=1e-4 length=0.001 units=km
new line.SC_5271136 phases=3 bus1=80474115001994.1.2.3 bus2=80474115001994B.1.2.3 switch=y r1=1e-4 x1=1e-4 length=0.001 units=km
new line.SC_5271142 phases=3 bus1=80473585001994.1.2.3 bus2=80473585001994B.1.2.3 switch=y r1=1e-4 x1=1e-4 length=0.001 units=km
new line.SC_5271143 phases=3 bus1=80473605001994.1.2.3 bus2=80473605001994B.1.2.3 switch=y r1=1e-4 x1=1e-4 length=0.001 units=km
new line.SC_5271151 phases=3 bus1=80474725001994.1.2.3 bus2=80474725001994B.1.2.3 switch=y r1=1e-4 x1=1e-4 length=0.001 units=km
new line.SC_5271162 phases=3 bus1=80478015001994.1.2.3 bus2=80478015001994B.1.2.3 switch=y r1=1e-4 x1=1e-4 length=0.001 units=km
new line.SC_5478654 phases=3 bus1=80472555001994.1.2.3 bus2=80472555001994B.1.2.3 switch=y r1=1e-4 x1=1e-4 length=0.001 units=km
new line.SC_5583636 phases=3 bus1=91072195001994.1.2.3 bus2=91072195001994B.1.2.3 switch=y r1=1e-4 x1=1e-4 length=0.001 units=km
open line.SC_5583636 1
new line.SC_5583637 phases=3 bus1=91072155001994.1.2.3 bus2=91072155001994B.1.2.3 switch=y r1=1e-4 x1=1e-4 length=0.001 units=km
open line.SC_5583637 1
new line.SC_5583638 phases=3 bus1=91072225001994.1.2.3 bus2=91072225001994B.1.2.3 switch=y r1=1e-4 x1=1e-4 length=0.001 units=km
new line.SC_5640732 phases=3 bus1=92860985001994.1.2.3 bus2=92860985001994B.1.2.3 switch=y r1=1e-4 x1=1e-4 length=0.001 units=km
open line.SC_5640732 1
new line.SC_5640733 phases=3 bus1=92861005001994.1.2.3 bus2=92861005001994B.1.2.3 switch=y r1=1e-4 x1=1e-4 length=0.001 units=km
open line.SC_5640733 1
new line.SC_5720244 phases=3 bus1=95176125001994.1.2.3 bus2=95176125001994B.1.2.3 switch=y r1=1e-4 x1=1e-4 length=0.001 units=km
new line.SC_5720245 phases=3 bus1=95176165001994.1.2.3 bus2=95176165001994B.1.2.3 switch=y r1=1e-4 x1=1e-4 length=0.001 units=km
open line.SC_5720245 1
new line.SC_5740402 phases=3 bus1=96239065001994.1.2.3 bus2=96239065001994B.1.2.3 switch=y r1=1e-4 x1=1e-4 length=0.001 units=km
open line.SC_5740402 1
new line.SC_5740403 phases=3 bus1=96041475001994.1.2.3 bus2=96041475001994B.1.2.3 switch=y r1=1e-4 x1=1e-4 length=0.001 units=km
new line.SC_5741887 phases=3 bus1=96098385001994.1.2.3 bus2=96098385001994B.1.2.3 switch=y r1=1e-4 x1=1e-4 length=0.001 units=km
new line.SC_5741888 phases=3 bus1=96098415001994.1.2.3 bus2=96098415001994B.1.2.3 switch=y r1=1e-4 x1=1e-4 length=0.001 units=km
open line.SC_5741888 1
new line.SC_5745952 phases=3 bus1=96383295001994.1.2.3 bus2=96383295001994B.1.2.3 switch=y r1=1e-4 x1=1e-4 length=0.001 units=km
new line.SC_5745953 phases=3 bus1=96383335001994.1.2.3 bus2=96383335001994B.1.2.3 switch=y r1=1e-4 x1=1e-4 length=0.001 units=km
open line.SC_5745953 1
new line.SC_5748389 phases=3 bus1=80475195001994.1.2.3 bus2=80475195001994B.1.2.3 switch=y r1=1e-4 x1=1e-4 length=0.001 units=km
new line.SC_5751582 phases=3 bus1=96641905001994.1.2.3 bus2=96641905001994B.1.2.3 switch=y r1=1e-4 x1=1e-4 length=0.001 units=km
open line.SC_5751582 1
new line.SC_5757015 phases=3 bus1=96920795001994.1.2.3 bus2=96920795001994B.1.2.3 switch=y r1=1e-4 x1=1e-4 length=0.001 units=km
open line.SC_5757015 1
new line.SC_5757016 phases=3 bus1=96920785001994.1.2.3 bus2=96920785001994B.1.2.3 switch=y r1=1e-4 x1=1e-4 length=0.001 units=km
open line.SC_5757016 1
new line.SC_5767969 phases=3 bus1=80474075001994.1.2.3 bus2=80474075001994B.1.2.3 switch=y r1=1e-4 x1=1e-4 length=0.001 units=km
new line.SC_5767970 phases=3 bus1=80472485001994.1.2.3 bus2=80472485001994B.1.2.3 switch=y r1=1e-4 x1=1e-4 length=0.001 units=km
new line.SC_5770182 phases=3 bus1=80472795001994.1.2.3 bus2=80472795001994B.1.2.3 switch=y r1=1e-4 x1=1e-4 length=0.001 units=km
new line.SC_5776114 phases=3 bus1=80475085001994.1.2.3 bus2=80475085001994B.1.2.3 switch=y r1=1e-4 x1=1e-4 length=0.001 units=km
new line.SC_5779039 phases=3 bus1=80474065001994.1.2.3 bus2=80474065001994B.1.2.3 switch=y r1=1e-4 x1=1e-4 length=0.001 units=km
new line.SC_DA0007959 phases=3 bus1=I888888315235001994.1.2.3 bus2=I888888315235001994B.1.2.3 switch=y r1=1e-4 x1=1e-4 length=0.001 units=km
new line.SC_SA0002838 phases=3 bus1=SA0002838.1.2.3 bus2=SA0002838B.1.2.3 switch=y r1=1e-4 x1=1e-4 length=0.001 units=km
new line.SC_SA0002832 phases=3 bus1=SA0002832.1.2.3 bus2=SA0002832B.1.2.3 switch=y r1=1e-4 x1=1e-4 length=0.001 units=km
new line.SC_SA0002835 phases=3 bus1=SA0002835.1.2.3 bus2=SA0002835B.1.2.3 switch=y r1=1e-4 x1=1e-4 length=0.001 units=km
new line.SC_SA0002777 phases=3 bus1=SA0002777.1.2.3 bus2=SA0002777B.1.2.3 switch=y r1=1e-4 x1=1e-4 length=0.001 units=km
new line.SC_SA0002778 phases=3 bus1=SA0002778.1.2.3 bus2=SA0002778B.1.2.3 switch=y r1=1e-4 x1=1e-4 length=0.001 units=km
new line.SC_SA0002824 phases=3 bus1=SA0002824.1.2.3 bus2=SA0002824B.1.2.3 switch=y r1=1e-4 x1=1e-4 length=0.001 units=km
new line.SC_SA0002825 phases=3 bus1=SA0002825.1.2.3 bus2=SA0002825B.1.2.3 switch=y r1=1e-4 x1=1e-4 length=0.001 units=km
new line.SC_SA0002826 phases=3 bus1=SA0002826.1.2.3 bus2=SA0002826B.1.2.3 switch=y r1=1e-4 x1=1e-4 length=0.001 units=km
new line.SC_SA0002829 phases=3 bus1=SA0002829.1.2.3 bus2=SA0002829B.1.2.3 switch=y r1=1e-4 x1=1e-4 length=0.001 units=km
new line.SC_SA0002823 phases=3 bus1=SA0002823.1.2.3 bus2=SA0002823B.1.2.3 switch=y r1=1e-4 x1=1e-4 length=0.001 units=km
new line.SC_DA0000427 phases=3 bus1=I888888315615001994.1.2.3 bus2=I888888315615001994B.1.2.3 switch=y r1=1e-4 x1=1e-4 length=0.001 units=km

! 5. Transformadores MT/BT de Distribuicao
new transformer.UNTRMT_5271078 phases=3 windings=2 %r=1.55 xhl=3.14 kva=75.0
~ wdg=1 bus=80474145001994.1.2.3 conn=delta kv=13.8
~ wdg=2 bus=80474145271078.1.2.3.0 conn=wye kv=0.38

new transformer.UNTRMT_5271093 phases=3 windings=2 %r=1.3 xhl=4.31 kva=75.0
~ wdg=1 bus=80473485001994.1.2.3 conn=delta kv=13.8
~ wdg=2 bus=80473485271093.1.2.3.0 conn=wye kv=0.38

new transformer.UNTRMT_5271117 phases=3 windings=2 %r=1.46 xhl=3.18 kva=112.0
~ wdg=1 bus=80479385001994.1.2.3 conn=delta kv=13.8
~ wdg=2 bus=80479385271117.1.2.3.0 conn=wye kv=0.38

new transformer.UNTRMT_5271124 phases=3 windings=2 %r=1.39 xhl=3.21 kva=150.0
~ wdg=1 bus=80478005001994.1.2.3 conn=delta kv=13.8
~ wdg=2 bus=80478005271124.1.2.3.0 conn=wye kv=0.38

new transformer.UNTRMT_5271126 phases=3 windings=2 %r=1.46 xhl=3.18 kva=112.0
~ wdg=1 bus=80478625001994.1.2.3 conn=delta kv=13.8
~ wdg=2 bus=80478625271126.1.2.3.0 conn=wye kv=0.38

new transformer.UNTRMT_5271133 phases=3 windings=2 %r=1.15 xhl=5.89 kva=500.0
~ wdg=1 bus=80478285001994.1.2.3 conn=delta kv=13.8
~ wdg=2 bus=80478285271133.1.2.3.0 conn=wye kv=0.38

new transformer.UNTRMT_5271168 phases=3 windings=2 %r=1.39 xhl=3.21 kva=150.0
~ wdg=1 bus=80474175001994.1.2.3 conn=delta kv=13.8
~ wdg=2 bus=80474175271168.1.2.3.0 conn=wye kv=0.38

new transformer.UNTRMT_5271169 phases=3 windings=2 %r=1.46 xhl=3.18 kva=112.0
~ wdg=1 bus=80474345001994.1.2.3 conn=delta kv=13.8
~ wdg=2 bus=80474345271169.1.2.3.0 conn=wye kv=0.38

new transformer.UNTRMT_5271170 phases=3 windings=2 %r=1.68 xhl=3.07 kva=45.0
~ wdg=1 bus=80474195001994.1.2.3 conn=delta kv=13.8
~ wdg=2 bus=80474195271170.1.2.3.0 conn=wye kv=0.38

new transformer.UNTRMT_5271181 phases=3 windings=2 %r=1.55 xhl=3.14 kva=75.0
~ wdg=1 bus=80473565001994.1.2.3 conn=delta kv=13.8
~ wdg=2 bus=80473565271181.1.2.3.0 conn=wye kv=0.38

new transformer.UNTRMT_5271183 phases=3 windings=2 %r=1.46 xhl=3.18 kva=112.0
~ wdg=1 bus=80473725001994.1.2.3 conn=delta kv=13.8
~ wdg=2 bus=80473725271183.1.2.3.0 conn=wye kv=0.38

new transformer.UNTRMT_5271208 phases=3 windings=2 %r=1.55 xhl=3.14 kva=75.0
~ wdg=1 bus=80475105001994.1.2.3 conn=delta kv=13.8
~ wdg=2 bus=80475105271208.1.2.3.0 conn=wye kv=0.38

new transformer.UNTRMT_5271221 phases=3 windings=2 %r=1.55 xhl=3.14 kva=75.0
~ wdg=1 bus=80479325001994.1.2.3 conn=delta kv=13.8
~ wdg=2 bus=80479325271221.1.2.3.0 conn=wye kv=0.38

new transformer.UNTRMT_5271222 phases=3 windings=2 %r=1.46 xhl=3.18 kva=112.0
~ wdg=1 bus=80478065001994.1.2.3 conn=delta kv=13.8
~ wdg=2 bus=80478065271222.1.2.3.0 conn=wye kv=0.38

new transformer.UNTRMT_5271223 phases=3 windings=2 %r=1.55 xhl=3.14 kva=75.0
~ wdg=1 bus=80478165001994.1.2.3 conn=delta kv=13.8
~ wdg=2 bus=80478165271223.1.2.3.0 conn=wye kv=0.38

new transformer.UNTRMT_5271224 phases=3 windings=2 %r=1.39 xhl=3.21 kva=150.0
~ wdg=1 bus=80479315001994.1.2.3 conn=delta kv=13.8
~ wdg=2 bus=80479315271224.1.2.3.0 conn=wye kv=0.38

new transformer.UNTRMT_5271243 phases=3 windings=2 %r=1.55 xhl=3.14 kva=75.0
~ wdg=1 bus=80478205001994.1.2.3 conn=delta kv=13.8
~ wdg=2 bus=80478205271243.1.2.3.0 conn=wye kv=0.38

new transformer.UNTRMT_5547468 phases=3 windings=2 %r=1.39 xhl=3.21 kva=150.0
~ wdg=1 bus=90015915001994.1.2.3 conn=delta kv=13.8
~ wdg=2 bus=90015915547468.1.2.3.0 conn=wye kv=0.38

! 6. Linhas de Baixa Tensao (BT)
new line.52879484 phases=3 bus1=80474185271168.1.2.3.0 bus2=80474175271168.1.2.3.0 r1=0.62 x1=0.47 length=0.045093 units=km normamps=230.0
new line.52879487 phases=3 bus1=80474235271168.1.2.3.0 bus2=80474225271168.1.2.3.0 r1=0.975 x1=0.47 length=0.014316 units=km normamps=152.0
new line.52879496 phases=3 bus1=80474055271169.1.2.3.0 bus2=80474075271169.1.2.3.0 r1=0.991 x1=0.1 length=0.037489 units=km normamps=100.0
new line.52879500 phases=3 bus1=80474075271169.1.2.3.0 bus2=80474105271169.1.2.3.0 r1=0.991 x1=0.1 length=0.037829 units=km normamps=100.0
new line.52879501 phases=3 bus1=80474085271169.1.2.3.0 bus2=80474335271169.1.2.3.0 r1=0.506 x1=0.1 length=0.033632 units=km normamps=157.0
new line.52879509 phases=3 bus1=80474395271169.1.2.3.0 bus2=80474405271169.1.2.3.0 r1=0.991 x1=0.1 length=0.030675 units=km normamps=100.0
new line.52879530 phases=3 bus1=80474805271170.1.2.3.0 bus2=80474795271170.1.2.3.0 r1=0.975 x1=0.47 length=0.040416 units=km normamps=152.0
new line.52879534 phases=3 bus1=80474845271170.1.2.3.0 bus2=80474835271170.1.2.3.0 r1=0.975 x1=0.47 length=0.018422 units=km normamps=152.0
new line.52879608 phases=3 bus1=80473555271181.1.2.3.0 bus2=80473585271181.1.2.3.0 r1=0.975 x1=0.47 length=0.011432 units=km normamps=152.0
new line.52879612 phases=3 bus1=80473755271181.1.2.3.0 bus2=80473735271181.1.2.3.0 r1=0.975 x1=0.47 length=0.027435 units=km normamps=152.0
new line.52879659 phases=3 bus1=80473595271183.1.2.3.0 bus2=80473605271183.1.2.3.0 r1=0.975 x1=0.47 length=0.030661 units=km normamps=152.0
new line.52879710 phases=3 bus1=80473635271183.1.2.3.0 bus2=80473625271183.1.2.3.0 r1=0.975 x1=0.47 length=0.036531 units=km normamps=152.0
new line.52879712 phases=3 bus1=80473615271183.1.2.3.0 bus2=80473685271183.1.2.3.0 r1=0.975 x1=0.47 length=0.024574 units=km normamps=152.0
new line.52879861 phases=3 bus1=80475055271208.1.2.3.0 bus2=80473815271208.1.2.3.0 r1=0.975 x1=0.47 length=0.03759 units=km normamps=152.0
new line.52879952 phases=3 bus1=80475305271222.1.2.3.0 bus2=80478015271222.1.2.3.0 r1=0.506 x1=0.1 length=0.052043 units=km normamps=157.0
new line.52879953 phases=3 bus1=80478015271222.1.2.3.0 bus2=80478025271222.1.2.3.0 r1=0.506 x1=0.1 length=0.015752 units=km normamps=157.0
new line.52879954 phases=3 bus1=80475295271222.1.2.3.0 bus2=80475305271222.1.2.3.0 r1=0.506 x1=0.1 length=0.022487 units=km normamps=157.0
new line.52879959 phases=3 bus1=80478035271222.1.2.3.0 bus2=80478015271222.1.2.3.0 r1=0.991 x1=0.1 length=0.016471 units=km normamps=100.0
new line.52879963 phases=3 bus1=80478585271223.1.2.3.0 bus2=80478595271223.1.2.3.0 r1=0.991 x1=0.1 length=0.029204 units=km normamps=100.0
new line.55423451 phases=3 bus1=96383295271208.1.2.3.0 bus2=96383305271208.1.2.3.0 r1=0.991 x1=0.1 length=0.007203 units=km normamps=100.0
new line.55837916 phases=3 bus1=99389095811440.1.2.3.0 bus2=80552765811440.1.2.3.0 r1=0.975 x1=0.47 length=0.016561 units=km normamps=152.0
new line.52879481 phases=3 bus1=80474155271168.1.2.3.0 bus2=80474135271168.1.2.3.0 r1=0.506 x1=0.1 length=0.013331 units=km normamps=157.0
new line.52879485 phases=3 bus1=80474215271168.1.2.3.0 bus2=80474185271168.1.2.3.0 r1=0.62 x1=0.47 length=0.032855 units=km normamps=230.0
new line.52879490 phases=3 bus1=80474265271168.1.2.3.0 bus2=80474255271168.1.2.3.0 r1=0.975 x1=0.47 length=0.033061 units=km normamps=152.0
new line.52879491 phases=3 bus1=80474275271168.1.2.3.0 bus2=80474265271168.1.2.3.0 r1=0.975 x1=0.47 length=0.033796 units=km normamps=152.0
new line.52879493 phases=3 bus1=80474285271168.1.2.3.0 bus2=80474295271168.1.2.3.0 r1=0.975 x1=0.47 length=0.0279 units=km normamps=152.0
new line.52879494 phases=3 bus1=80474295271168.1.2.3.0 bus2=80474305271168.1.2.3.0 r1=0.975 x1=0.47 length=0.014836 units=km normamps=152.0
new line.52879495 phases=3 bus1=80474045271169.1.2.3.0 bus2=96098395271169.1.2.3.0 r1=0.991 x1=0.1 length=0.007551 units=km normamps=100.0
new line.52879502 phases=3 bus1=80474335271169.1.2.3.0 bus2=80474345271169.1.2.3.0 r1=0.506 x1=0.1 length=0.030841 units=km normamps=157.0
new line.52879503 phases=3 bus1=80474345271169.1.2.3.0 bus2=80474355271169.1.2.3.0 r1=0.506 x1=0.1 length=0.039143 units=km normamps=157.0
new line.52879507 phases=3 bus1=80474365271169.1.2.3.0 bus2=80474385271169.1.2.3.0 r1=0.991 x1=0.1 length=0.031229 units=km normamps=100.0
new line.52879508 phases=3 bus1=80474385271169.1.2.3.0 bus2=80474395271169.1.2.3.0 r1=0.991 x1=0.1 length=0.02549 units=km normamps=100.0
new line.52879512 phases=3 bus1=80473915271170.1.2.3.0 bus2=80473925271170.1.2.3.0 r1=0.975 x1=0.47 length=0.043504 units=km normamps=152.0
new line.52879518 phases=3 bus1=80473975271170.1.2.3.0 bus2=80473985271170.1.2.3.0 r1=0.975 x1=0.47 length=0.035215 units=km normamps=152.0
new line.52879521 phases=3 bus1=80474205271170.1.2.3.0 bus2=80474195271170.1.2.3.0 r1=0.975 x1=0.47 length=0.010841 units=km normamps=152.0
new line.52879526 phases=3 bus1=80474775271170.1.2.3.0 bus2=80474765271170.1.2.3.0 r1=0.975 x1=0.47 length=0.024834 units=km normamps=152.0
new line.52879527 phases=3 bus1=80474785271170.1.2.3.0 bus2=80474775271170.1.2.3.0 r1=0.975 x1=0.47 length=0.024865 units=km normamps=152.0
new line.52879531 phases=3 bus1=80474805271170.1.2.3.0 bus2=80474815271170.1.2.3.0 r1=0.975 x1=0.47 length=0.056469 units=km normamps=152.0
new line.52879533 phases=3 bus1=80474835271170.1.2.3.0 bus2=80474825271170.1.2.3.0 r1=0.975 x1=0.47 length=0.027993 units=km normamps=152.0
new line.52879601 phases=3 bus1=80444265271181.1.2.3.0 bus2=80441005271181.1.2.3.0 r1=0.613 x1=0.45 length=0.019402 units=km normamps=203.0
new line.52879604 phases=3 bus1=80473545271181.1.2.3.0 bus2=80473535271181.1.2.3.0 r1=0.613 x1=0.45 length=0.037212 units=km normamps=203.0
new line.52879605 phases=3 bus1=80473555271181.1.2.3.0 bus2=80473545271181.1.2.3.0 r1=0.613 x1=0.45 length=0.027533 units=km normamps=203.0
new line.52879607 phases=3 bus1=80473575271181.1.2.3.0 bus2=80473565271181.1.2.3.0 r1=0.613 x1=0.45 length=0.034282 units=km normamps=203.0
new line.52879610 phases=3 bus1=80473745271181.1.2.3.0 bus2=80473575271181.1.2.3.0 r1=0.506 x1=0.1 length=0.031739 units=km normamps=157.0
new line.52879611 phases=3 bus1=80473745271181.1.2.3.0 bus2=80473735271181.1.2.3.0 r1=0.975 x1=0.47 length=0.022518 units=km normamps=152.0
new line.52879615 phases=3 bus1=80473885271181.1.2.3.0 bus2=80473875271181.1.2.3.0 r1=0.613 x1=0.45 length=0.03623 units=km normamps=203.0
new line.52879660 phases=3 bus1=80473605271183.1.2.3.0 bus2=80473615271183.1.2.3.0 r1=0.975 x1=0.47 length=0.011432 units=km normamps=152.0
new line.52879711 phases=3 bus1=80473645271183.1.2.3.0 bus2=80473635271183.1.2.3.0 r1=0.975 x1=0.47 length=0.042583 units=km normamps=152.0
new line.52879713 phases=3 bus1=80473685271183.1.2.3.0 bus2=80473695271183.1.2.3.0 r1=0.975 x1=0.47 length=0.040349 units=km normamps=152.0
new line.52879714 phases=3 bus1=80473695271183.1.2.3.0 bus2=80473705271183.1.2.3.0 r1=0.975 x1=0.47 length=0.045032 units=km normamps=152.0
new line.52879715 phases=3 bus1=80473615271183.1.2.3.0 bus2=80473715271183.1.2.3.0 r1=0.613 x1=0.45 length=0.010676 units=km normamps=203.0
new line.52879717 phases=3 bus1=80473765271183.1.2.3.0 bus2=80473755271183.1.2.3.0 r1=0.975 x1=0.47 length=0.033168 units=km normamps=152.0
new line.52879725 phases=3 bus1=80473845271183.1.2.3.0 bus2=80473835271183.1.2.3.0 r1=0.975 x1=0.47 length=0.036541 units=km normamps=152.0
new line.52879726 phases=3 bus1=80473855271183.1.2.3.0 bus2=80473845271183.1.2.3.0 r1=0.975 x1=0.47 length=0.027533 units=km normamps=152.0
new line.52879856 phases=3 bus1=80473815271208.1.2.3.0 bus2=80433495271208.1.2.3.0 r1=0.975 x1=0.47 length=0.033732 units=km normamps=152.0
new line.52879862 phases=3 bus1=80475085271208.1.2.3.0 bus2=80475095271208.1.2.3.0 r1=0.613 x1=0.45 length=0.010527 units=km normamps=203.0
new line.52879901 phases=3 bus1=80475115271208.1.2.3.0 bus2=80475105271208.1.2.3.0 r1=0.613 x1=0.45 length=0.021349 units=km normamps=203.0
new line.52879902 phases=3 bus1=80475125271208.1.2.3.0 bus2=80475115271208.1.2.3.0 r1=0.613 x1=0.45 length=0.032367 units=km normamps=203.0
new line.52879903 phases=3 bus1=80475175271208.1.2.3.0 bus2=80475185271208.1.2.3.0 r1=0.613 x1=0.45 length=0.037016 units=km normamps=203.0
new line.52879955 phases=3 bus1=80478045271222.1.2.3.0 bus2=80478035271222.1.2.3.0 r1=0.991 x1=0.1 length=0.027576 units=km normamps=100.0
new line.52879958 phases=3 bus1=80478085271222.1.2.3.0 bus2=80478075271222.1.2.3.0 r1=0.506 x1=0.1 length=0.030428 units=km normamps=157.0
new line.52879960 phases=3 bus1=80478165271223.1.2.3.0 bus2=80478575271223.1.2.3.0 r1=0.506 x1=0.1 length=0.020387 units=km normamps=157.0
new line.52879962 phases=3 bus1=80478575271223.1.2.3.0 bus2=80478585271223.1.2.3.0 r1=0.506 x1=0.1 length=0.026544 units=km normamps=157.0
new line.52879965 phases=3 bus1=80478025271223.1.2.3.0 bus2=80478095271223.1.2.3.0 r1=0.984 x1=0.49 length=0.038772 units=km normamps=170.0
new line.52879969 phases=3 bus1=80478125271223.1.2.3.0 bus2=80478135271223.1.2.3.0 r1=0.506 x1=0.1 length=0.014844 units=km normamps=157.0
new line.52880033 phases=3 bus1=80478205271243.1.2.3.0 bus2=80478195271243.1.2.3.0 r1=0.506 x1=0.1 length=0.0328 units=km normamps=157.0
new line.52880036 phases=3 bus1=80478245271243.1.2.3.0 bus2=80478235271243.1.2.3.0 r1=0.506 x1=0.1 length=0.021103 units=km normamps=157.0
new line.55394306 phases=3 bus1=96098395271169.1.2.3.0 bus2=96098385271169.1.2.3.0 r1=0.991 x1=0.1 length=0.005019 units=km normamps=100.0
new line.55394308 phases=3 bus1=96098405271169.1.2.3.0 bus2=80474055271169.1.2.3.0 r1=0.991 x1=0.1 length=0.011108 units=km normamps=100.0
new line.55423455 phases=3 bus1=96383315271208.1.2.3.0 bus2=96383295271208.1.2.3.0 r1=0.991 x1=0.1 length=0.007488 units=km normamps=100.0
new line.52879155 phases=3 bus1=80474125271168.1.2.3.0 bus2=80474115271168.1.2.3.0 r1=0.991 x1=0.1 length=0.013718 units=km normamps=100.0
new line.52879156 phases=3 bus1=80474135271168.1.2.3.0 bus2=80474125271168.1.2.3.0 r1=0.506 x1=0.1 length=0.030828 units=km normamps=157.0
new line.52879482 phases=3 bus1=80474165271168.1.2.3.0 bus2=80474155271168.1.2.3.0 r1=0.506 x1=0.1 length=0.030743 units=km normamps=157.0
new line.52879486 phases=3 bus1=80474225271168.1.2.3.0 bus2=80474215271168.1.2.3.0 r1=0.62 x1=0.47 length=0.045097 units=km normamps=230.0
new line.52879488 phases=3 bus1=80474245271168.1.2.3.0 bus2=80474235271168.1.2.3.0 r1=0.975 x1=0.47 length=0.025759 units=km normamps=152.0
new line.52879489 phases=3 bus1=80474255271168.1.2.3.0 bus2=80474225271168.1.2.3.0 r1=0.975 x1=0.47 length=0.020469 units=km normamps=152.0
new line.52879499 phases=3 bus1=80474095271169.1.2.3.0 bus2=80474085271169.1.2.3.0 r1=0.991 x1=0.1 length=0.010887 units=km normamps=100.0
new line.52879504 phases=3 bus1=80474355271169.1.2.3.0 bus2=80474375271169.1.2.3.0 r1=0.506 x1=0.1 length=0.027307 units=km normamps=157.0
new line.52879505 phases=3 bus1=80474375271169.1.2.3.0 bus2=80474365271169.1.2.3.0 r1=0.506 x1=0.1 length=0.011807 units=km normamps=157.0
new line.52879506 phases=3 bus1=80474365271169.1.2.3.0 bus2=80474245271169.1.2.3.0 r1=0.506 x1=0.1 length=0.025248 units=km normamps=157.0
new line.52879511 phases=3 bus1=80474415271169.1.2.3.0 bus2=80474425271169.1.2.3.0 r1=0.991 x1=0.1 length=0.028976 units=km normamps=100.0
new line.52879513 phases=3 bus1=80473925271170.1.2.3.0 bus2=80473935271170.1.2.3.0 r1=0.975 x1=0.47 length=0.026518 units=km normamps=152.0
new line.52879514 phases=3 bus1=80473935271170.1.2.3.0 bus2=80473945271170.1.2.3.0 r1=0.975 x1=0.47 length=0.032011 units=km normamps=152.0
new line.52879515 phases=3 bus1=80473945271170.1.2.3.0 bus2=80473955271170.1.2.3.0 r1=0.975 x1=0.47 length=0.033848 units=km normamps=152.0
new line.52879516 phases=3 bus1=80473955271170.1.2.3.0 bus2=80473965271170.1.2.3.0 r1=0.975 x1=0.47 length=0.033386 units=km normamps=152.0
new line.52879517 phases=3 bus1=80473965271170.1.2.3.0 bus2=80473975271170.1.2.3.0 r1=0.975 x1=0.47 length=0.037492 units=km normamps=152.0
new line.52879519 phases=3 bus1=80473985271170.1.2.3.0 bus2=80473995271170.1.2.3.0 r1=0.975 x1=0.47 length=0.030213 units=km normamps=152.0
new line.52879520 phases=3 bus1=80473995271170.1.2.3.0 bus2=80474005271170.1.2.3.0 r1=0.975 x1=0.47 length=0.058217 units=km normamps=152.0
new line.52879523 phases=3 bus1=80474745271170.1.2.3.0 bus2=80474735271170.1.2.3.0 r1=0.975 x1=0.47 length=0.061837 units=km normamps=152.0
new line.52879524 phases=3 bus1=80474755271170.1.2.3.0 bus2=80474745271170.1.2.3.0 r1=0.975 x1=0.47 length=0.051297 units=km normamps=152.0
new line.52879528 phases=3 bus1=80474785271170.1.2.3.0 bus2=80474205271170.1.2.3.0 r1=0.975 x1=0.47 length=0.032857 units=km normamps=152.0
new line.52879529 phases=3 bus1=80474795271170.1.2.3.0 bus2=80474785271170.1.2.3.0 r1=0.975 x1=0.47 length=0.042219 units=km normamps=152.0
new line.52879532 phases=3 bus1=80474825271170.1.2.3.0 bus2=80474805271170.1.2.3.0 r1=0.975 x1=0.47 length=0.038399 units=km normamps=152.0
new line.52879603 phases=3 bus1=80473535271181.1.2.3.0 bus2=80473525271181.1.2.3.0 r1=0.613 x1=0.45 length=0.026265 units=km normamps=203.0
new line.52879609 phases=3 bus1=80473585271181.1.2.3.0 bus2=80473595271181.1.2.3.0 r1=0.975 x1=0.47 length=0.0283 units=km normamps=152.0
new line.52879613 phases=3 bus1=80473865271181.1.2.3.0 bus2=80473745271181.1.2.3.0 r1=0.613 x1=0.45 length=0.041725 units=km normamps=203.0
new line.52879614 phases=3 bus1=80473875271181.1.2.3.0 bus2=80473865271181.1.2.3.0 r1=0.613 x1=0.45 length=0.039774 units=km normamps=203.0
new line.52879617 phases=3 bus1=80440995271181.1.2.3.0 bus2=80440955271181.1.2.3.0 r1=0.613 x1=0.45 length=0.027694 units=km normamps=203.0
new line.52879618 phases=3 bus1=80441005271181.1.2.3.0 bus2=80440995271181.1.2.3.0 r1=0.613 x1=0.45 length=0.032017 units=km normamps=203.0
new line.52879716 phases=3 bus1=80473715271183.1.2.3.0 bus2=80473725271183.1.2.3.0 r1=0.613 x1=0.45 length=0.02629 units=km normamps=203.0
new line.52879718 phases=3 bus1=80473725271183.1.2.3.0 bus2=80473775271183.1.2.3.0 r1=0.613 x1=0.45 length=0.02717 units=km normamps=203.0
new line.52879719 phases=3 bus1=80473775271183.1.2.3.0 bus2=80473795271183.1.2.3.0 r1=0.613 x1=0.45 length=0.009701 units=km normamps=203.0
new line.52879723 phases=3 bus1=80433495271183.1.2.3.0 bus2=80473805271183.1.2.3.0 r1=0.975 x1=0.47 length=0.037669 units=km normamps=152.0
new line.52879727 phases=3 bus1=80473795271183.1.2.3.0 bus2=80473855271183.1.2.3.0 r1=0.975 x1=0.47 length=0.025287 units=km normamps=152.0
new line.52879859 phases=3 bus1=80475025271208.1.2.3.0 bus2=80475055271208.1.2.3.0 r1=0.975 x1=0.47 length=0.030457 units=km normamps=152.0
new line.52879860 phases=3 bus1=80475055271208.1.2.3.0 bus2=80475065271208.1.2.3.0 r1=0.991 x1=0.1 length=0.012269 units=km normamps=100.0
new line.52879863 phases=3 bus1=80475095271208.1.2.3.0 bus2=80475035271208.1.2.3.0 r1=0.613 x1=0.45 length=0.043407 units=km normamps=203.0
new line.52879900 phases=3 bus1=80475105271208.1.2.3.0 bus2=80475085271208.1.2.3.0 r1=0.613 x1=0.45 length=0.022331 units=km normamps=203.0
new line.52879904 phases=3 bus1=80475185271208.1.2.3.0 bus2=80475125271208.1.2.3.0 r1=0.613 x1=0.45 length=0.030732 units=km normamps=203.0
new line.52879905 phases=3 bus1=80475195271208.1.2.3.0 bus2=80475185271208.1.2.3.0 r1=0.991 x1=0.1 length=0.022269 units=km normamps=100.0
new line.52879907 phases=3 bus1=80473705271208.1.2.3.0 bus2=80475205271208.1.2.3.0 r1=0.991 x1=0.1 length=0.03482 units=km normamps=100.0
new line.52879964 phases=3 bus1=80478595271223.1.2.3.0 bus2=80478605271223.1.2.3.0 r1=0.991 x1=0.1 length=0.02682 units=km normamps=100.0
new line.52879966 phases=3 bus1=80478095271223.1.2.3.0 bus2=80478105271223.1.2.3.0 r1=0.991 x1=0.1 length=0.027462 units=km normamps=100.0
new line.52879967 phases=3 bus1=80478105271223.1.2.3.0 bus2=90136715271223.1.2.3.0 r1=0.506 x1=0.1 length=0.016122 units=km normamps=157.0
new line.52879970 phases=3 bus1=80478135271223.1.2.3.0 bus2=80478145271223.1.2.3.0 r1=0.506 x1=0.1 length=0.021092 units=km normamps=157.0
new line.52879971 phases=3 bus1=80478145271223.1.2.3.0 bus2=80478155271223.1.2.3.0 r1=0.506 x1=0.1 length=0.010089 units=km normamps=157.0
new line.52880029 phases=3 bus1=80478565271243.1.2.3.0 bus2=80478185271243.1.2.3.0 r1=0.506 x1=0.1 length=0.026984 units=km normamps=157.0
new line.52880030 phases=3 bus1=80478195271243.1.2.3.0 bus2=80478565271243.1.2.3.0 r1=0.506 x1=0.1 length=0.020489 units=km normamps=157.0
new line.52880031 phases=3 bus1=80474725271243.1.2.3.0 bus2=80478175271243.1.2.3.0 r1=1.564 x1=0.51 length=0.016186 units=km normamps=120.0
new line.52880034 phases=3 bus1=80478215271243.1.2.3.0 bus2=80478205271243.1.2.3.0 r1=0.506 x1=0.1 length=0.023394 units=km normamps=157.0
new line.52880035 phases=3 bus1=80478235271243.1.2.3.0 bus2=80478215271243.1.2.3.0 r1=0.506 x1=0.1 length=0.029802 units=km normamps=157.0
new line.54633308 phases=3 bus1=90136715271223.1.2.3.0 bus2=80478115271223.1.2.3.0 r1=0.506 x1=0.1 length=0.012626 units=km normamps=157.0
new line.55394304 phases=3 bus1=96098385271169.1.2.3.0 bus2=96098405271169.1.2.3.0 r1=0.991 x1=0.1 length=0.00582 units=km normamps=100.0
new line.52879483 phases=3 bus1=80474175271168.1.2.3.0 bus2=80474165271168.1.2.3.0 r1=0.506 x1=0.1 length=0.031763 units=km normamps=157.0
new line.52879721 phases=3 bus1=80473785271183.1.2.3.0 bus2=80473795271183.1.2.3.0 r1=0.975 x1=0.47 length=0.025113 units=km normamps=152.0
new line.52879722 phases=3 bus1=80473805271183.1.2.3.0 bus2=80473785271183.1.2.3.0 r1=0.975 x1=0.47 length=0.037317 units=km normamps=152.0
new line.52879857 phases=3 bus1=80475035271208.1.2.3.0 bus2=80475025271208.1.2.3.0 r1=0.975 x1=0.47 length=0.012309 units=km normamps=152.0
new line.52879858 phases=3 bus1=80475035271208.1.2.3.0 bus2=80475045271208.1.2.3.0 r1=0.975 x1=0.47 length=0.036031 units=km normamps=152.0
new line.52879957 phases=3 bus1=80478065271222.1.2.3.0 bus2=80478045271222.1.2.3.0 r1=0.506 x1=0.1 length=0.030762 units=km normamps=157.0
new line.52879968 phases=3 bus1=80478115271223.1.2.3.0 bus2=80478125271223.1.2.3.0 r1=0.506 x1=0.1 length=0.010948 units=km normamps=157.0
new line.52880026 phases=3 bus1=80478265271243.1.2.3.0 bus2=80478275271243.1.2.3.0 r1=0.991 x1=0.1 length=0.017297 units=km normamps=100.0
new line.55423453 phases=3 bus1=96383305271208.1.2.3.0 bus2=80475195271208.1.2.3.0 r1=0.991 x1=0.1 length=0.014821 units=km normamps=100.0
new line.52879961 phases=3 bus1=80478585271223.1.2.3.0 bus2=80478225271223.1.2.3.0 r1=1.551 x1=0.49 length=0.031769 units=km normamps=114.0
new line.52879724 phases=3 bus1=80473835271183.1.2.3.0 bus2=80473825271183.1.2.3.0 r1=0.975 x1=0.47 length=0.031909 units=km normamps=152.0
new line.52880027 phases=3 bus1=80478275271243.1.2.3.0 bus2=80478215271243.1.2.3.0 r1=0.991 x1=0.1 length=0.020511 units=km normamps=100.0
new line.52879864 phases=3 bus1=80478155271223.1.2.3.0 bus2=80478165271223.1.2.3.0 r1=0.506 x1=0.1 length=0.017912 units=km normamps=157.0
new line.52879154 phases=3 bus1=80474105271168.1.2.3.0 bus2=80474115271168.1.2.3.0 r1=0.975 x1=0.47 length=0.040998 units=km normamps=152.0
new line.52879498 phases=3 bus1=80474065271169.1.2.3.0 bus2=80474085271169.1.2.3.0 r1=0.506 x1=0.1 length=0.037862 units=km normamps=157.0
new line.52879602 phases=3 bus1=80473525271181.1.2.3.0 bus2=80444265271181.1.2.3.0 r1=0.613 x1=0.45 length=0.018445 units=km normamps=203.0
new line.52880032 phases=3 bus1=80478185271243.1.2.3.0 bus2=80474725271243.1.2.3.0 r1=0.506 x1=0.1 length=0.014046 units=km normamps=157.0
new line.52879497 phases=3 bus1=80474075271169.1.2.3.0 bus2=80474065271169.1.2.3.0 r1=0.506 x1=0.1 length=0.014692 units=km normamps=157.0
new line.52879606 phases=3 bus1=80473565271181.1.2.3.0 bus2=80473555271181.1.2.3.0 r1=0.613 x1=0.45 length=0.020374 units=km normamps=203.0
new line.52879510 phases=3 bus1=80474405271169.1.2.3.0 bus2=80474415271169.1.2.3.0 r1=0.991 x1=0.1 length=0.021452 units=km normamps=100.0
new line.52879709 phases=3 bus1=80473625271183.1.2.3.0 bus2=80473615271183.1.2.3.0 r1=0.613 x1=0.45 length=0.01866 units=km normamps=203.0
new line.52879522 phases=3 bus1=80474735271170.1.2.3.0 bus2=80473915271170.1.2.3.0 r1=0.975 x1=0.47 length=0.046101 units=km normamps=152.0
new line.52879525 phases=3 bus1=80474765271170.1.2.3.0 bus2=80474755271170.1.2.3.0 r1=0.975 x1=0.47 length=0.032547 units=km normamps=152.0
new line.52879956 phases=3 bus1=80478075271222.1.2.3.0 bus2=80478065271222.1.2.3.0 r1=0.506 x1=0.1 length=0.032735 units=km normamps=157.0
new line.52879906 phases=3 bus1=80475205271208.1.2.3.0 bus2=96383315271208.1.2.3.0 r1=0.991 x1=0.1 length=0.011853 units=km normamps=100.0
new line.52879492 phases=3 bus1=80474285271168.1.2.3.0 bus2=80474275271168.1.2.3.0 r1=0.975 x1=0.47 length=0.046916 units=km normamps=152.0
new line.52879720 phases=3 bus1=80473795271183.1.2.3.0 bus2=80473765271183.1.2.3.0 r1=0.975 x1=0.47 length=0.00887 units=km normamps=152.0
new line.52879616 phases=3 bus1=80473895271181.1.2.3.0 bus2=80473885271181.1.2.3.0 r1=0.613 x1=0.45 length=0.037385 units=km normamps=203.0
new line.52880028 phases=3 bus1=80478295271243.1.2.3.0 bus2=80478245271243.1.2.3.0 r1=0.506 x1=0.1 length=0.036022 units=km normamps=157.0

! 7. Cargas Consumidoras de Baixa Tensao (BT)
new load.UCBT_ba8b05d80c640292934794f54a742a6535b6a03afa00bbf362affd3d3a2ccd90 phases=3 model=1 bus=80474085271169.1.2.3.0 kv=0.38 conn=wye kw=37.0 daily=RES-Tipo7 vminpu=0.85
new load.UCBT_29377c0fed9f785f09d94a318b6aa15bd73e337131c7491abc406ee3ed6ee640 phases=2 model=1 bus=80474265271168.1.2.0 kv=0.38 conn=wye kw=16.0 daily=RES-Tipo8 vminpu=0.85
new load.UCBT_9e71dd07b40eadfb0750b9ba714f58eb768513e8af9d5be0d403fb4f7640d6ed phases=1 model=1 bus=80478205271243.3.0 kv=0.22 conn=wye kw=8.0 daily=RES-Tipo7 vminpu=0.85
new load.UCBT_94b643d531c211ef2179454a4822d62cfc465160cdf27edef13f971025e197f3 phases=1 model=1 bus=80478215271243.3.0 kv=0.22 conn=wye kw=8.0 daily=RES-Tipo8 vminpu=0.85
new load.UCBT_57ad9582149be63e2143244081681ebe671fa67fd1f7c2a3f2a0881cfc6f8920 phases=1 model=1 bus=90015915547468.1.0 kv=0.22 conn=wye kw=9.0 daily=RES-Tipo3 vminpu=0.85
new load.UCBT_624818e15407bbda7a0e061efc17fb3acbd94c0b220526861af6a6cf1fa7a5ce phases=1 model=1 bus=90015915547468.3.0 kv=0.22 conn=wye kw=9.0 daily=RES-Tipo4 vminpu=0.85
new load.UCBT_339512afccf4044fef6d886c8a582366ab8f68ae7a0a9772a6f102d19530e6f7 phases=1 model=1 bus=80473725271183.1.0 kv=0.22 conn=wye kw=8.0 daily=RES-Tipo1 vminpu=0.85
new load.UCBT_e03c7dc941d9a25fde19c435dca15b79dfb3d072a6a7483870c0e696f893e7ea phases=1 model=1 bus=90015915547468.1.0 kv=0.22 conn=wye kw=9.0 daily=RES-Tipo6 vminpu=0.85
new load.UCBT_a3914c0f46aa1de3338ff4f5e065c05b509782170565ff8389fe3c9b4a05e178 phases=1 model=1 bus=90015915547468.2.0 kv=0.22 conn=wye kw=9.0 daily=RES-Tipo4 vminpu=0.85
new load.UCBT_5918d213ee17877ae1a3c2a039abd87f36642c0197022da5bc58884761f6d09f phases=1 model=1 bus=80478065271222.2.0 kv=0.22 conn=wye kw=9.0 daily=RES-Tipo4 vminpu=0.85
new load.UCBT_c0f1b76d5fb7c2f23c2b15aa0309b03a40b4addd4f24123a856bdc305d565be0 phases=1 model=1 bus=90015915547468.1.0 kv=0.22 conn=wye kw=9.0 daily=RES-Tipo4 vminpu=0.85
...